<?xml version="1.0"?>
<routes>
   <vType id="vtype0" vClass="passenger" />
   <vType id="vtype1" vClass="pedestrian" />
   <route id="route0" edges="A0toB0 B0toB1 B1toA1 A1toA0"/>

	<flow id="flow0" type="vtype0" route="route0" begin="0" period="5" number="3" arrivalPos="0" />
	
	    <person id="46" type="vtype1" depart="0">
           <walk route="route0" />
    </person>
   
   <person id="42" type="vtype1" depart="10">
           <walk route="route0" />
    </person>
	
	
</routes>
